launcher/output/tcopflowout/t5.m
function mpc = t5

%%-----  Power Flow Data  -----%%
%% system MVA base
mpc.baseMVA = 100;

%% OPF objective
mpc.obj = 0;

%% OPF convergence status
mpc.converged = 1;

%% bus data
%	bus_i	type	Pd	Qd	Gs	Bs	area	Vm	Va	baseKV	zone	Vmax	Vmin	mult_Pmis	mult_Qmis	Pslack	Qslack
mpc.bus = [
	1	1	0	0	0	0	1	0.972209235	-0.678513122	115	2	1.1	0.9	7.47083535e-09	-1.66276297e-08	0	0;
	2	1	4.44449476	1.26298227	0	0	1	0.972135075	-0.686994367	115	2	1.1	0.9	1.13153092e-08	-1.51218975e-08	0	0;
	3	1	0	0	0	0	1	1.01219669	-3.93702202	115	4	1.1	0.9	-9.10902468e-08	-5.53502333e-07	0	0;
	4	1	1.05205364	0.297050439	0	0	1	1.01218104	-3.93887016	115	4	1.1	0.9	-9.02700513e-08	-5.53432724e-07	0	0;
	5	1	0	0	0	0	1	0.993313373	-2.72083508	115	6	1.1	0.9	-5.22385346e-08	-3.59437528e-07	0	0;
	6	1	4.61478221	1.31187519	0	0	1	0.993237043	-2.72924951	115	6	1.1	0.9	-4.84284787e-08	-3.58263462e-07	0	0;
	7	1	0	0	0	0	1	0.96816062	-1.15776847	115	2	1.1	0.9	1.33853568e-08	-2.32379847e-09	0	0;
	8	1	14.2777139	4.07161428	0	0	1	0.967932853	-1.18402851	115	2	1.1	0.9	2.58147464e-08	1.69272098e-09	0	0;
	9	1	0	0	0	0	1	0.969718833	-0.871530851	115	2	1.1	0.9	9.99187172e-09	-8.42421875e-09	0	0;
	10	1	25.6686112	7.31326878	0	0	1	0.969264071	-0.930995397	115	2	1.1	0.9	3.34119827e-08	-1.17666398e-09	0	0;
	11	1	0	0	0	0	1	1.02512318	-3.05305135	115	4	1.1	0.9	-8.52299613e-08	-5.84177033e-07	0	0;
	12	1	0.185656524	0.0556969572	0	0	1	1.02512029	-3.05339276	115	4	1.1	0.9	-8.51396282e-08	-5.8452234e-07	0	0;
	13	1	1.5595148	0.445575658	0	0	1	1.02509809	-3.05596714	115	4	1.1	0.9	-8.40452742e-08	-5.84216775e-07	0	0;
	14	1	0	0	0	0	1	1.01536027	-2.42385138	230	4	1.1	0.9	-6.72424284e-08	-4.56062832e-07	0	0;
	15	1	0	0	0	30	1	1.02273975	-2.90571731	115	4	1.1	0.9	-7.23921822e-08	-5.00551193e-07	0	0;
	16	1	27.6999534	7.89659083	0	0	1	1.02234242	-2.95189688	115	4	1.1	0.9	-4.78008037e-08	-4.93825843e-07	0	0;
	17	1	0	0	0	0	1	0.989851435	-2.95477212	115	4	1.1	0.9	-3.61116295e-08	-2.37606564e-07	0	0;
	18	1	0.439387107	0.123771016	0	0	1	0.989844293	-2.95574446	115	4	1.1	0.9	-3.57271581e-08	-2.37332643e-07	0	0;
	19	1	0.476518412	0.136148118	0	0	1	0.989844726	-2.95558917	115	4	1.1	0.9	-3.56940936e-08	-2.37358949e-07	0	0;
	20	1	0.699306241	0.198033626	0	0	1	0.989840354	-2.95606541	115	4	1.1	0.9	-3.5505534e-08	-2.37296458e-07	0	0;
	21	1	2.85292192	0.810700155	0	0	1	0.989801288	-2.96105159	115	4	1.1	0.9	-3.37292009e-08	-2.36763987e-07	0	0;
	22	1	0	0	0	0	1	1.02670609	-3.1530607	115	4	1.1	0.9	-9.56722398e-08	-6.50651001e-07	0	0;
	23	1	0.872585663	0.247542032	0	0	1	1.02669309	-3.15450598	115	4	1.1	0.9	-9.50439362e-08	-6.50832862e-07	0	0;
	24	1	1.48525219	0.420821455	0	0	1	1.02668358	-3.15537958	115	4	1.1	0.9	-9.4557171e-08	-6.50674347e-07	0	0;
	25	1	0	0	0	0	1	1.00179624	-2.99007231	115	6	1.1	0.9	-6.23116477e-08	-4.17298354e-07	0	0;
	26	1	0.783642261	0.226385542	0	0	1	1.00178453	-2.99136741	115	6	1.1	0.9	-6.16751628e-08	-4.17136249e-07	0	0;
	27	1	0	0	0	0	1	1.02751492	-3.18095442	115	4	1.1	0.9	-9.51275655e-08	-6.43651877e-07	0	0;
	28	1	1.44193234	0.414632904	0	0	1	1.02749069	-3.18392428	115	4	1.1	0.9	-9.40528047e-08	-6.43806499e-07	0	0;
	29	1	0	0	0	0	1	0.970636655	-0.488363598	115	2	1.1	0.9	7.33921502e-09	-2.09491939e-08	0	0;
	30	1	35.5379155	10.127915	0	0	1	0.970054919	-0.551795239	115	2	1.1	0.9	4.21723114e-08	-1.05814603e-08	0	0;
	31	1	0	0	0	0	1	0.976272805	-3.10973588	115	7	1.1	0.9	-2.23308356e-08	-1.50897988e-07	0	0;
	32	1	0.352917933	0.103799392	0	0	1	0.976266265	-3.11051828	115	7	1.1	0.9	-2.19647663e-08	-1.50389251e-07	0	0;
	33	1	4.4564539	1.27327254	0	0	1	0.976201225	-3.11908124	115	7	1.1	0.9	-1.85546215e-08	-1.49438206e-07	0	0;
	34	1	0	0	0	0	1	1.01692065	-3.61408372	115	4	1.1	0.9	-9.52427864e-08	-6.0679376e-07	0	0;
	35	1	12.8474315	3.66362208	0	0	1	1.01671551	-3.63907355	115	4	1.1	0.9	-8.48048904e-08	-6.04065528e-07	0	0;
	36	1	0	0	0	0	1	0.984321467	-3.09491007	115	7	1.1	0.9	-2.46941985e-08	-1.68749132e-07	0	0;
	37	1	2.47042553	0.705835866	0	0	1	0.984283744	-3.09954172	115	7	1.1	0.9	-2.25981143e-08	-1.67931054e-07	0	0;
	38	1	20.6283992	5.88196555	0	0	1	0.98397088	-3.13542373	115	7	1.1	0.9	-6.64146632e-09	-1.63360468e-07	0	0;
	39	1	4.58571615	1.30578422	0	0	1	1.00113913	-4.13534889	115	4	1.1	0.9	-7.28447686e-08	-4.15798517e-07	0	0;
	40	1	1.26246436	0.358935947	0	0	1	1.00112164	-4.13748472	115	4	1.1	0.9	-7.18144866e-08	-4.15519573e-07	0	0;
	41	1	23.0611602	6.57429528	0	0	1	1.02162055	-4.60189848	115	5	1.1	0.9	-8.58252041e-08	-4.61915573e-07	0	0;
	42	1	6.57224095	1.87513089	0	0	1	1.00465621	-3.91768204	115	4	1.1	0.9	-7.42552893e-08	-4.23162975e-07	0	0;
	43	1	1.25696807	0.354837877	0	0	1	0.971794879	-2.29272738	115	2	1.1	0.9	-1.14192509e-08	-9.59299754e-08	0	0;
	44	1	2.56824858	0.730248995	0	0	1	0.99859956	-3.35645946	115	4	1.1	0.9	-5.70198057e-08	-3.47291469e-07	0	0;
	45	1	0	0	0	0	1	0.990436691	-0.902955817	230	7	1.1	0.9	-3.09584736e-08	-2.59792951e-07	0	0;
	46	1	4.38725431	1.25251266	0	0	1	0.991943265	-1.41388825	115	7	1.1	0.9	-3.16181265e-08	-2.70305652e-07	0	0;
	47	1	0.953036824	0.272296235	0	0	1	1.02282388	-2.9761714	115	4	1.1	0.9	-8.9628972e-08	-6.31819724e-07	0	0;
	48	1	1.05646586	0.30184739	0	0	1	0.993253234	-2.88695783	115	6	1.1	0.9	-5.05612342e-08	-3.38929495e-07	0	0;
	49	2	0	0	0	0	1	0.997016724	-2.47838966	13.8	6	1.1	0.9	-5.90277957e-08	-3.36336385e-07	0	0;
	50	2	0	0	0	0	1	0.996133197	-2.57670383	13.8	6	1.1	0.9	-6.03934931e-08	-3.37072467e-07	0	0;
	51	2	0	0	0	0	1	0.99751814	-2.41511665	13.8	6	1.1	0.9	-6.40507408e-08	-3.38927817e-07	0	0;
	52	2	0	0	0	0	1	0.995974494	-2.59582044	13.8	6	1.1	0.9	-6.61284675e-08	-3.39891074e-07	0	0;
	53	2	0	0	0	0	1	0.999530884	-1.99422697	13.8	6	1.1	0.9	-5.82770854e-08	-3.40692203e-07	0	0;
	54	1	1.64615451	0.470329861	0	0	1	1.0212783	-3.14492786	115	4	1.1	0.9	-9.12078595e-08	-6.25296104e-07	0	0;
	55	1	0	0	0	0	1	0.987426647	-0.943193989	230	7	1.1	0.9	-2.74741491e-08	-2.33280862e-07	0	0;
	56	1	0.906514691	0.256038501	0	0	1	0.987273114	-1.14534165	115	7	1.1	0.9	-2.71019114e-08	-2.22721033e-07	0	0;
	57	1	1.74517133	0.495084064	0	0	1	1.00852956	-4.11587437	115	4	1.1	0.9	-8.66901668e-08	-5.07726438e-07	0	0;
	58	1	2.92714286	0.837315096	0	0	1	0.992321561	-3.2522972	115	7	1.1	0.9	-3.13042674e-08	-2.02275646e-07	0	0;
	59	1	2.84471722	0.811917176	0	0	1	0.978401223	-2.3397992	115	2	1.1	0.9	-5.50827973e-09	-8.21317526e-08	0	0;
	60	1	2.28539649	0.649533741	0	0	1	0.981874296	-0.370275601	115	2	1.1	0.9	-6.9572435e-09	-1.11732215e-07	0	0;
	61	1	14.2205167	4.05509625	0	0	1	0.988215872	-1.48171977	115	7	1.1	0.9	-2.93583399e-08	-2.4438822e-07	0	0;
	62	1	13.2496873	3.77501599	0	0	1	1.0054647	-4.41210554	115	4	1.1	0.9	-8.51385259e-08	-4.69689646e-07	0	0;
	63	1	4.93846354	1.40480103	0	0	1	1.02548684	-3.52177437	115	4	1.1	0.9	-9.30771173e-08	-5.94110641e-07	0	0;
	64	1	0	0	0	0	1	0.994066337	-2.36693064	115	6	1.1	0.9	-5.31338047e-08	-3.88027837e-07	0	0;
	65	2	0	0	0	0	1	0.976546621	-0.614389144	13.8	6	1.1	0.9	-3.6018737e-08	-3.87780481e-07	0	0;
	66	1	0	0	0	0	1	1.02425576	-2.77474085	115	4	1.1	0.9	-8.67850535e-08	-6.3358374e-07	0	0;
	67	2	0	0	0	0	1	1.02528702	-2.66938839	13.8	4	1.1	0.9	-9.98197221e-08	-6.53684207e-07	0	0;
	68	2	0	0	0	0	1	1.02247211	-1.55665026	13.8	4	1.1	0.9	-7.3377601e-08	-6.61298279e-07	0	0;
	69	2	0	0	0	0	1	1.02388225	-2.33800985	13.8	4	1.1	0.9	-9.19341019e-08	-6.43097457e-07	0	0;
	70	2	0	0	0	0	1	1.02313779	-1.85789419	13.8	4	1.1	0.9	-8.12917188e-08	-6.54506219e-07	0	0;
	71	2	0	0	0	0	1	1.02392183	-2.39996237	13.8	4	1.1	0.9	-9.43346305e-08	-6.41471883e-07	0	0;
	72	2	0	0	0	0	1	1.02397839	-2.4317821	13.8	4	1.1	0.9	-9.50477426e-08	-6.40699217e-07	0	0;
	73	2	0	0	0	0	1	1.02363743	-2.10126447	13.8	4	1.1	0.9	-8.94296149e-08	-6.48600883e-07	0	0;
	74	1	10.8897251	3.10554526	0	0	1	0.99045085	-3.30155252	115	6	1.1	0.9	-5.05783839e-08	-3.18454181e-07	0	0;
	75	1	2.16511247	0.619462734	0	0	1	0.977657653	0.282821003	115	2	1.1	0.9	7.6103703e-09	1.7611603e-08	0	0;
	76	2	0	0	0	0	1	0.984624791	0.824227837	13.8	2	1.1	0.9	-7.74933658e-09	5.84058978e-08	0	0;
	77	2	0	0	0	0	1	0.988791118	1.19545182	13.8	2	1.1	0.9	-1.02044512e-07	4.92279466e-08	0	0;
	78	1	0	0	0	0	1	0.977657653	0.282821003	13.8	2	1.1	0.9	8.47795554e-09	3.60321515e-08	0	0;
	79	1	0	0	0	0	1	0.977657653	0.282821003	13.8	2	1.1	0.9	8.69485184e-09	4.5817668e-08	0	0;
	80	1	0.890206498	0.252626168	0	0	1	1.0196172	-4.1980345	115	5	1.1	0.9	-7.80120643e-08	-4.26238729e-07	0	0;
	81	1	0	0	0	0	1	0.996291265	-1.95291634	230	6	1.1	0.9	-4.13145008e-08	-2.81239111e-07	0	0;
	82	1	4.41161569	1.25963238	0	0	1	0.9943604	-2.37772832	115	6	1.1	0.9	-4.12493183e-08	-2.63254944e-07	0	0;
	83	1	2.17286727	0.615876393	0	0	1	0.983247992	-2.06800387	115	7	1.1	0.9	-1.97037308e-08	-1.51299536e-07	0	0;
	84	1	2.25532549	0.643519539	0	0	1	0.973191004	-2.47866962	115	2	1.1	0.9	-1.81586539e-08	-1.26379322e-07	0	0;
	85	1	2.98907004	0.854020011	0	0	1	0.997305207	-3.83134878	115	4	1.1	0.9	-6.0687392e-08	-3.56181925e-07	0	0;
	86	1	4.96171607	1.41333731	0	0	1	0.96882234	-1.02281827	115	2	1.1	0.9	1.14723516e-08	-4.90441048e-09	0	0;
	87	1	0	0	0	0	1	1.01221583	-2.90465904	230	3	1.1	0.9	-7.67702133e-08	-4.93176453e-07	0	0;
	88	1	29.4663123	8.3967643	0	0	1	1.01285061	-3.65086478	115	3	1.1	0.9	-8.60623962e-08	-4.94008814e-07	0	0;
	89	1	43.4919453	12.3936474	0	0	1	1.00002924	-3.57403131	115	7	1.1	0.9	-5.00953035e-08	-3.01608559e-07	0	0;
	90	2	0	0	0	0	1	1.01222029	-2.35296327	13.8	7	1.1	0.9	-1.47772561e-07	-4.7032226e-07	0	0;
	91	2	0	0	0	0	1	1.00449404	-3.15486757	13.8	7	1.1	0.9	-5.82858075e-08	-3.15359153e-07	0	0;
	92	1	0	0	0	0	1	1.00002924	-3.57403131	13.8	7	1.1	0.9	-5.00977157e-08	-3.01653256e-07	0	0;
	93	1	1.89369655	0.53840392	0	0	1	1.02736204	-3.29906463	115	4	1.1	0.9	-9.13930247e-08	-6.04064543e-07	0	0;
	94	2	0	0	0	0	1	1.02824412	-2.47810207	13.8	4	1.1	0.9	-8.67237902e-08	-6.39420802e-07	0	0;
	95	1	2.07598784	0.588196555	0	30	1	1.00548408	-3.54054931	115	7	1.1	0.9	-4.21934093e-08	-2.58408538e-07	0	0;
	96	1	2.048308	0.581276596	0	0	1	1.00280517	-2.62096752	115	7	1.1	0.9	-5.17505613e-08	-3.42531436e-07	0	0;
	97	1	4.40840955	1.25696807	0	0	1	0.986002878	-1.52119097	115	2	1.1	0.9	-1.9705031e-08	-1.79638921e-07	0	0;
	98	1	0	0	0	0	1	0.974724058	0.553598889	230	2	1.1	0.9	1.24006059e-09	-2.48782578e-08	0	0;
	99	1	7.31928298	2.08692785	0	0	1	0.972658485	-0.0843377987	115	2	1.1	0.9	5.4718759e-09	-1.49427339e-08	0	0;
	100	1	22.4897439	6.41189275	0	80	1	1.02998461	-4.48648714	115	5	1.1	0.9	-8.4903848e-08	-4.58225674e-07	0	0;
	101	1	0.312738468	0.0902130195	0	0	1	0.969524847	-0.987317956	115	2	1.1	0.9	1.0419662e-08	-9.077443e-09	0	0;
	102	1	0	0	0	0	1	0.986285784	-0.733257484	230	7	1.1	0.9	-2.69530277e-08	-2.30043905e-07	0	0;
	103	1	0	0	0	0	1	0.987197602	-1.17787182	115	7	1.1	0.9	-2.67533846e-08	-2.2182731e-07	0	0;
	104	2	0	0	0	0	1	0.980175251	0.637024286	13.8	7	1.1	0.9	-2.9684349e-08	-2.21550815e-07	0	0;
	105	2	0	0	0	0	1	0.973829364	1.17025446	13.8	7	1.1	0.9	-1.87546877e-08	-2.26342275e-07	0	0;
	106	1	1.42551165	0.408277609	0	0	1	0.985395919	-1.31885169	115	7	1.1	0.9	-2.17432505e-08	-1.88450869e-07	0	0;
	107	1	36.371307	10.3660993	0	0	1	0.971081949	-3.15819792	115	7	1.1	0.9	-2.43613791e-08	-1.62880055e-07	0	0;
	108	1	5.66537763	1.61180595	0	0	1	0.976562364	-0.0907874317	115	2	1.1	0.9	9.63039989e-09	1.65822763e-08	0	0;
	109	1	3.19329221	0.909716968	0	0	1	0.986102417	-2.25757535	115	4	1.1	0.9	-2.526177e-08	-1.84820984e-07	0	0;
	110	1	6.53142261	1.8583882	0	0	1	0.969566978	-0.965174805	115	2	1.1	0.9	1.04735226e-08	-8.08523298e-09	0	0;
	111	1	5.30514953	1.5097421	0	0	1	1.01822954	-4.66025831	115	5	1.1	0.9	-8.59810563e-08	-4.59210734e-07	0	0;
	112	1	0	0	0	0	1	0.982270222	-0.905336161	230	7	1.1	0.9	-2.33613295e-08	-2.0283713e-07	0	0;
	113	1	0	0	0	0	1	0.974524519	-2.58046738	115	7	1.1	0.9	-2.50760257e-08	-1.58897382e-07	0	0;
	114	2	0	0	0	0	1	0.982939334	-0.728021839	13.8	7	1.1	0.9	-3.2350023e-08	-1.71157515e-07	0	0;
	115	2	0	0	0	0	1	0.974097734	0.843209059	13.8	7	1.1	0.9	-2.14467989e-08	-1.96006015e-07	0	0;
	116	1	0	0	0	0	1	0.973755412	0.459062722	230	2	1.1	0.9	-1.21064558e-09	-4.28903412e-08	0	0;
	117	1	20.496398	5.83978946	0	0	1	0.971835394	-0.792099608	115	2	1.1	0.9	3.04823708e-09	-3.47760053e-08	0	0;
	118	1	2.36959531	0.673590546	0	0	1	0.97370038	-0.369273697	115	2	1.1	0.9	6.26109638e-09	-1.82359256e-08	0	0;
	119	1	10.5549233	3.00710065	0	0	1	0.974617676	-1.99791593	115	2	1.1	0.9	4.54318113e-10	-5.21616257e-08	0	0;
	120	1	1.11393914	0.315616091	0	0	1	0.994373056	-3.48765918	115	4	1.1	0.9	-5.01725296e-08	-3.06310947e-07	0	0;
	121	1	0	0	0	0	1	1.0009148	-1.21819996	230	7	1.1	0.9	-3.9404954e-08	-3.44319679e-07	0	0;
	122	1	10.6844174	3.04478217	0	0	1	0.998098517	-1.85378907	115	7	1.1	0.9	-4.23032653e-08	-3.18811397e-07	0	0;
	123	1	0	0	0	0	1	0.977554796	1.24562202	230	2	1.1	0.9	-1.42642622e-09	-3.90025042e-08	0	0;
	124	1	0	0	0	0	1	0.974359237	0.0334171401	115	2	1.1	0.9	3.19040516e-09	-2.32735759e-08	0	0;
	125	2	0	0	0	0	1	0.989877293	3.63347358	13.8	2	1.1	0.9	-1.00944482e-08	-3.6769223e-08	0	0;
	126	2	0	0	0	0	1	0.984947176	2.76990394	13.8	2	1.1	0.9	-1.13590356e-08	-3.72713983e-08	0	0;
	127	2	0	0	0	0	1	0.981161196	1.97825344	13.8	2	1.1	0.9	-1.24042292e-08	-3.91573035e-08	0	0;
	128	1	0	0	0	0	1	0.982843526	-0.90426396	230	7	1.1	0.9	-2.40540977e-08	-2.02481626e-07	0	0;
	129	1	53.449767	15.2308308	0	0	1	0.97329983	-2.79059357	115	7	1.1	0.9	-2.66456448e-08	-1.78493767e-07	0	0;
	130	1	3.04478217	0.864994934	0	0	1	0.983698997	-1.40184999	115	7	1.1	0.9	-1.74082441e-08	-1.61697126e-07	0	0;
	131	1	18.1929589	5.18424152	0	0	1	0.96987702	-0.86783768	115	2	1.1	0.9	1.00680469e-08	-9.32287834e-09	0	0;
	132	1	16.2142867	4.6189066	0	0	1	0.969391076	-1.9557736	115	2	1.1	0.9	-2.83116896e-09	-6.10360658e-08	0	0;
	133	1	0	0	0	0	1	0.977040793	1.44378234	230	2	1.1	0.9	-4.08377602e-09	-5.24823331e-08	0	0;
	134	1	0	0	0	0	1	0.978589398	0.632583974	115	2	1.1	0.9	-9.59796097e-10	-6.17631074e-08	0	0;
	135	2	0	0	0	0	1	0.9704244	4.16142644	13.8	2	1.1	0.9	-2.81460535e-09	-4.80621652e-08	0	0;
	136	2	0	0	0	0	1	0.971737313	3.66978523	13.8	2	1.1	0.9	-3.64545618e-09	-4.89534118e-08	0	0;
	137	1	0.717871893	0.204222177	0	0	1	1.01446653	-3.79736259	115	4	1.1	0.9	-9.35164638e-08	-5.79499399e-07	0	0;
	138	1	1.21319432	0.348285449	0	0	1	0.99104305	-2.59447986	115	6	1.1	0.9	-3.17955904e-08	-2.18459235e-07	0	0;
	139	1	4.11371369	1.17276925	0	0	1	0.981697319	-2.52411802	115	2	1.1	0.9	-1.18012736e-08	-1.13806231e-07	0	0;
	140	1	4.93765927	1.4073231	0	0	1	0.97368001	-0.0895215629	115	2	1.1	0.9	4.07673673e-09	-3.50419658e-08	0	0;
	141	1	0.854016585	0.246582253	0	0	1	0.969563313	-0.956898875	115	2	1.1	0.9	1.09786083e-08	-7.17665378e-09	0	0;
	142	1	22.408914	6.38708178	0	0	1	0.968457716	-0.948650294	115	2	1.1	0.9	1.07906575e-08	-5.04472148e-09	0	0;
	143	1	16.1079257	4.58937539	0	0	1	1.0067368	-3.81786902	115	5	1.1	0.9	-6.85824258e-08	-3.81804916e-07	0	0;
	144	1	5.44285218	1.55166394	0	0	1	0.977556881	-1.38227123	115	2	1.1	0.9	-4.86294081e-09	-8.45458139e-08	0	0;
	145	1	10.475053	2.98604705	0	0	1	1.01032939	-4.08387843	115	3	1.1	0.9	-9.22290406e-08	-5.00430838e-07	0	0;
	146	1	0	0	0	0	1	0.982710411	-1.81516602	115	7	1.1	0.9	-2.03005338e-08	-1.50702849e-07	0	0;
	147	2	0	0	0	0	1	0.977878434	0.218829335	13.8	7	1.1	0.9	-2.74641207e-08	-1.3945136e-07	0	0;
	148	1	19.2574726	5.49096579	0	0	1	0.966474243	-1.40922497	115	2	1.1	0.9	1.46883075e-08	8.17233865e-10	0	0;
	149	1	0	0	0	0	1	1.01243218	-2.64893148	230	3	1.1	0.9	-7.45179621e-08	-4.92074632e-07	0	0;
	150	1	0	0	0	0	1	1.01433839	-3.35076776	115	3	1.1	0.9	-8.34225885e-08	-4.92410064e-07	0	0;
	151	2	0	0	0	0	1	1.01653707	-2.09255458	13.8	3	1.1	0.9	-1.00291552e-07	-5.45357743e-07	0	0;
	152	2	0	0	0	0	1	1.00461061	-0.79145284	13.8	3	1.1	0.9	-6.32801736e-08	-4.98290391e-07	0	0;
	153	2	0	0	0	0	1	1.00249224	-0.216297998	13.8	3	1.1	0.9	-5.33607089e-08	-5.00567608e-07	0	0;
	154	2	0	0	0	0	1	1.00704129	-1.30067268	13.8	3	1.1	0.9	-7.21473968e-08	-4.96035629e-07	0	0;
	155	2	0	0	0	0	1	1.00723177	-1.34136231	13.8	3	1.1	0.9	-7.28547071e-08	-4.95827663e-07	0	0;
	156	1	0	0	0	0	1	0.977332274	1.26213411	230	2	1.1	0.9	-1.72076429e-09	-4.07718008e-08	0	0;
	157	1	8.87696112	2.53197875	0	0	1	0.977234114	0.770891169	115	2	1.1	0.9	3.58919479e-11	-1.74598069e-08	0	0;
	158	1	5.55113007	1.58426901	0	0	1	1.02532581	-3.00332401	115	4	1.1	0.9	-8.93734297e-08	-6.27302193e-07	0	0;
	159	1	0.860208562	0.247542032	0	0	1	1.00519323	-4.22252585	115	4	1.1	0.9	-8.14841946e-08	-4.64703366e-07	0	0;
	160	1	0	0	0	0	1	1.00823002	-4.19652507	115	4	1.1	0.9	-8.36702939e-08	-4.71546484e-07	0	0;
	161	1	0	0	0	0	1	1.00823002	-4.19652507	13.8	4	1.1	0.9	-8.37185195e-08	-4.74332047e-07	0	0;
	162	1	0.872059189	0.246582253	0	0	1	0.976032401	-1.21742372	115	2	1.1	0.9	-2.16634996e-09	-6.5026933e-08	0	0;
	163	1	27.5482822	7.84945594	0	0	1	1.01879756	-4.55982524	115	5	1.1	0.9	-8.44682419e-08	-4.5769542e-07	0	0;
	164	1	0	0	0	0	1	1.01879756	-4.55982524	13.8	5	1.1	0.9	-8.5130903e-08	-4.66820232e-07	0	0;
	165	1	0	0	0	0	1	1.01879756	-4.55982524	13.8	5	1.1	0.9	-8.50657431e-08	-4.82052232e-07	0	0;
	166	1	0	0	0	0	1	1.01879756	-4.55982524	13.8	5	1.1	0.9	-8.57898499e-08	-4.88545455e-07	0	0;
	167	2	0	0	0	0	1	1.02099096	-4.26034802	13.8	5	1.1	0.9	-9.39467287e-08	-4.78539377e-07	0	0;
	168	1	0	0	0	0	1	1.01879756	-4.55982524	13.8	5	1.1	0.9	-8.59216231e-08	-4.97339057e-07	0	0;
	169	1	0	0	0	0	1	1.01879756	-4.55982524	13.8	5	1.1	0.9	-8.57898499e-08	-4.89703477e-07	0	0;
	170	2	0	0	0	0	1	1.02274366	-3.98717558	13.8	5	1.1	0.9	-9.52321215e-08	-4.97950109e-07	0	0;
	171	1	4.60897745	1.31187519	0	0	1	0.990893378	-3.11611499	115	6	1.1	0.9	-4.42580426e-08	-2.75718791e-07	0	0;
	172	1	3.23602092	0.920281041	0	0	1	1.01551314	-4.13186199	115	5	1.1	0.9	-8.29697525e-08	-4.68818249e-07	0	0;
	173	1	5.23898554	1.49169737	0	0	1	1.01854987	-4.5351581	115	5	1.1	0.9	-8.49474687e-08	-4.49516054e-07	0	0;
	174	1	1.66612973	0.475177793	0	0	1	1.02008459	-4.01656769	115	5	1.1	0.9	-7.65506761e-08	-4.27174589e-07	0	0;
	175	1	4.39689831	1.25110102	0	0	1	1.01813996	-4.66442493	115	5	1.1	0.9	-8.65650764e-08	-4.56808201e-07	0	0;
	176	1	11.3529509	3.236875	0	0	1	1.01135841	-3.88566319	115	3	1.1	0.9	-8.81808086e-08	-4.96945648e-07	0	0;
	177	1	7.81263425	2.22822695	0	0	1	0.98203513	-2.84510549	115	7	1.1	0.9	-2.39189548e-08	-1.62705281e-07	0	0;
	178	1	0	0	0	0	1	1.00670792	-2.66529543	230	5	1.1	0.9	-6.03865987e-08	-3.56667803e-07	0	0;
	179	1	14.2011996	4.0480336	0	0	1	1.01755157	-3.9029898	115	5	1.1	0.9	-7.23320996e-08	-4.21951232e-07	0	0;
	180	1	4.65553939	1.32929484	0	0	1	1.01783166	-4.21951354	115	5	1.1	0.9	-8.44597269e-08	-4.7382626e-07	0	0;
	181	1	29.6926668	8.45974895	0	0	1	1.00956722	-4.07648451	115	4	1.1	0.9	-8.31439723e-08	-4.70731968e-07	0	0;
	182	2	0	0	0	0	1	1.01183846	-3.20349817	13.8	4	1.1	0.9	-8.12585597e-08	-4.85492771e-07	0	0;
	183	2	0	0	0	0	1	1.00991222	-3.56415976	13.8	4	1.1	0.9	-9.10038238e-08	-4.75533551e-07	0	0;
	184	1	6.42993747	1.83454717	0	0	1	1.027531	-4.24622402	115	5	1.1	0.9	-9.25992922e-08	-5.23972217e-07	0	0;
	185	1	6.44388953	1.83343289	0	0	1	1.01155682	-3.90063544	115	3	1.1	0.9	-9.08461043e-08	-4.99604844e-07	0	0;
	186	1	1.26298227	0.360852078	0	0	1	0.983186057	-1.52606808	115	2	1.1	0.9	-1.72891116e-08	-1.4111549e-07	0	0;
	187	1	0	0	0	0	1	0.997812913	-0.777051363	230	7	1.1	0.9	-3.73101274e-08	-3.25629321e-07	0	0;
	188	1	0	0	0	0	1	1.00372984	-2.43319762	115	7	1.1	0.9	-5.02118444e-08	-3.35815386e-07	0	0;
	189	3	0	0	0	0	1	0.995064787	-4.11071991e-23	13.8	7	1.1	0.9	-3.12894168e-08	-3.26993974e-07	0	0;
	190	1	9.74618783	2.77467408	0	0	1	0.989642922	-3.39095547	115	6	1.1	0.9	-4.84826702e-08	-2.97170376e-07	0	0;
	191	1	4.34877904	1.23907121	0	0	1	1.02398337	-3.90070092	115	5	1.1	0.9	-9.34392689e-08	-5.57031533e-07	0	0;
	192	1	36.4958663	10.4006991	0	0	1	0.971499888	-3.20311553	115	7	1.1	0.9	-2.32724823e-08	-1.57536895e-07	0	0;
	193	1	13.2252287	3.77090422	0	0	1	0.97023004	-0.841046633	115	2	1.1	0.9	9.33074216e-09	-9.86611739e-09	0	0;
	194	1	22.4371575	6.39611278	0	50	1	1.01606177	-3.79935365	115	3	1.1	0.9	-8.49760555e-08	-4.90035074e-07	0	0;
	195	1	0	0	0	0	1	0.993062422	-2.56934398	115	6	1.1	0.9	-3.83952175e-08	-2.52456005e-07	0	0;
	196	1	0	0	0	0	1	0.993062422	-2.56934398	13.8	6	1.1	0.9	-3.83107593e-08	-2.50676813e-07	0	0;
	197	1	0	0	0	0	1	0.993062422	-2.56934398	13.8	6	1.1	0.9	-3.83107593e-08	-2.46781485e-07	0	0;
	198	1	3.2296261	0.920172799	0	0	1	0.974784541	-0.382897429	115	2	1.1	0.9	8.16250836e-09	-2.98299615e-09	0	0;
	199	1	2.47282669	0.702375656	0	0	1	1.01065966	-3.7008718	115	6	1.1	0.9	-7.44541159e-08	-4.49799094e-07	0	0;
	200	1	5.78010645	1.64615451	0	0	1	0.991158353	-2.52329695	115	4	1.1	0.9	-3.64021912e-08	-2.55855018e-07	0	0;
];

%% generator data
%	bus	Pg	Qg	Qmax	Qmin	Vg	mBase	status	Pmax	Pmin	Pc1	Pc2	Qc1min	Qc1max	Qc2min	Qc2max	ramp_agc	ramp_10	ramp_30	ramp_q	apf	pgs
mpc.gen = [
	49	1.35999911	0.640616344	2.11	-0.55	0.997016724	5.44	1	4.53	1.36	0	0	0	0	0	0	3	30	90	0	0.00151126442	1.36;
	50	1.35999911	0.640317955	2.11	-0.55	0.996133197	5.44	1	4.53	1.36	0	0	0	0	0	0	3	30	90	0	0.00151126442	1.36;
	51	1.35999911	0.639566005	2.11	-0.55	0.99751814	5.44	1	4.53	1.36	0	0	0	0	0	0	3	30	90	0	0.00151126442	1.36;
	52	1.35999911	0.639175731	2.11	-0.55	0.995974494	5.44	1	4.53	1.36	0	0	0	0	0	0	3	30	90	0	0.00151126442	1.36;
	53	2.71999911	1.00915973	4.23	-1.11	0.999530884	10.88	1	9.07	2.72	0	0	0	0	0	0	3	30	90	0	0.00302586497	2.72;
	65	29.0182143	-16.7629893	32.04	-21.66	0.976546621	180.48	1	86.5	0	0	0	0	0	0	0	45	450	1350	0	0.0288574774	86.5;
	67	1.40999911	0.527472229	2.19	-0.57	1.02528702	5.64	1	4.7	1.41	0	0	0	0	0	0	3	30	90	0	0.00156797854	1.41;
	68	8.37999911	-0.816783013	13.01	-3.41	1.02247211	33.5	1	27.92	8.38	0	0	0	0	0	0	3	30	90	0	0.00931445976	8.38;
	69	8.37999911	-0.759582104	13.01	-3.41	1.02388225	33.5	1	27.92	8.38	0	0	0	0	0	0	3	30	90	0	0.00931445976	8.38;
	70	8.37999911	-0.795716279	13.01	-3.41	1.02313779	33.5	1	27.92	8.38	0	0	0	0	0	0	3	30	90	0	0.00931445976	8.38;
	71	8.37999911	-0.754355552	13.01	-3.41	1.02392183	33.5	1	27.92	8.38	0	0	0	0	0	0	3	30	90	0	0.00931445976	8.38;
	72	8.37999911	-0.751864346	13.01	-3.41	1.02397839	33.5	1	27.92	8.38	0	0	0	0	0	0	3	30	90	0	0.00931445976	8.38;
	73	8.37999911	-0.77713141	13.01	-3.41	1.02363743	33.5	1	27.92	8.38	0	0	0	0	0	0	3	30	90	0	0.00931445976	8.38;
	76	1.19999909	0.821266837	2.04	-0.44	0.984624791	4.8	1	4	1.2	0	0	0	0	0	0	35	350	1050	0	0.00133444982	1.2;
	77	0.719999091	0.48147176	1.22	-0.27	0.988791118	2.88	1	2.4	0.72	0	0	0	0	0	0	35	350	1050	0	0.000800669894	0.72;
	78	0	0	9.16	-2	0.977657653	21.6	0	18	5.4	0	0	0	0	0	0	35	350	1050	0	0	11.7;
	79	0	0	9.16	-2	0.977657653	21.6	0	18	5.4	0	0	0	0	0	0	35	350	1050	0	0	11.7;
	90	0.959999091	0.526023878	1.63	-0.36	1.01222029	3.84	1	3.2	0.96	0	0	0	0	0	0	35	350	1050	0	0.00106755986	0.96;
	91	1.49999909	0.82287069	2.55	-0.55	1.00449404	6	1	5	1.5	0	0	0	0	0	0	35	350	1050	0	0.00166806228	1.5;
	92	0	0	3.21	-0.7	1.00002924	7.56	0	6.3	1.89	0	0	0	0	0	0	35	350	1050	0	0	4.095;
	94	5.39999911	0.156345146	8.39	-2.2	1.02824412	21.6	1	18	5.4	0	0	0	0	0	0	3	30	90	0	0.0060050242	5.4;
	104	26.1749254	-7.13695661	21.09	-14.26	0.980175251	118.8	1	67.6	0	0	0	0	0	0	0	45	450	1350	0	0.022552202	67.6;
	105	53.3595401	-20.3941642	42.17	-28.51	0.973829364	237.6	1	154.8	0	0	0	0	0	0	0	45	450	1350	0	0.0516432082	154.8;
	114	0.696245128	0.0563515619	0.36	-0.24	0.982939334	2.04	1	1.4	0	0	0	0	0	0	0	45	450	1350	0	0.000467057438	1.4;
	115	46.2482312	-12.9155954	31.95	-21.6	0.974097734	180	1	133.5	0	0	0	0	0	0	0	45	450	1350	0	0.0445372628	133.5;
	125	39.0199991	10.7973213	60.6	-15.87	0.989877293	156.06	1	130.05	39.02	0	0	0	0	0	0	3	30	90	0	0.0433862999	39.02;
	126	39.0199991	10.6662576	60.6	-15.87	0.984947176	156.06	1	130.05	39.02	0	0	0	0	0	0	3	30	90	0	0.0433862999	39.02;
	127	39.0199991	10.1816579	60.6	-15.87	0.981161196	156.06	1	130.05	39.02	0	0	0	0	0	0	3	30	90	0	0.0433862999	39.02;
	135	133.919999	-17.6957753	208.02	-54.46	0.9704244	535.68	1	446.4	133.92	0	0	0	0	0	0	3	30	90	0	0.1489246	133.92;
	136	133.919999	-18.2436867	208.02	-54.46	0.971737313	535.68	1	446.4	133.92	0	0	0	0	0	0	3	30	90	0	0.1489246	133.92;
	147	33.381381	-4.86607905	21.41	-14.47	0.977878434	120.6	1	92.4	0	0	0	0	0	0	0	45	450	1350	0	0.0308257909	92.4;
	151	1.61999911	0.616133667	2.52	-0.66	1.01653707	6.48	1	5.4	1.62	0	0	0	0	0	0	3	30	90	0	0.00180150726	1.62;
	152	23.1699991	-5.5757579	35.99	-9.42	1.00461061	92.67	1	77.22	23.17	0	0	0	0	0	0	3	30	90	0	0.0257615538	23.17;
	153	23.1699991	-5.59150217	35.99	-9.42	1.00249224	92.67	1	77.22	23.17	0	0	0	0	0	0	3	30	90	0	0.0257615538	23.17;
	154	23.1699991	-5.56004199	35.99	-9.42	1.00704129	92.67	1	77.22	23.17	0	0	0	0	0	0	3	30	90	0	0.0257615538	23.17;
	155	23.1699991	-5.55858603	35.99	-9.42	1.00723177	92.67	1	77.22	23.17	0	0	0	0	0	0	3	30	90	0	0.0257615538	23.17;
	161	0	0	70.55	-15.38	1.00823002	166.32	0	138.6	41.58	0	0	0	0	0	0	35	350	1050	0	0	90.09;
	164	0	0	6.11	-1.33	1.01879756	14.4	0	12	3.6	0	0	0	0	0	0	35	350	1050	0	0	7.8;
	165	0	0	13.23	-2.89	1.01879756	31.2	0	26	7.8	0	0	0	0	0	0	35	350	1050	0	0	16.9;
	166	0	0	4.78	-1.04	1.01879756	11.28	0	9.4	2.82	0	0	0	0	0	0	35	350	1050	0	0	6.11;
	167	2.81999909	0.996561769	4.78	-1.04	1.02099096	11.28	1	9.4	2.82	0	0	0	0	0	0	35	350	1050	0	0.00313595708	2.82;
	168	0	0	4.78	-1.04	1.01879756	11.28	0	9.4	2.82	0	0	0	0	0	0	35	350	1050	0	0	6.11;
	169	0	0	4.78	-1.04	1.01879756	11.28	0	9.4	2.82	0	0	0	0	0	0	35	350	1050	0	0	6.11;
	170	2.81999909	0.967269864	4.78	-1.04	1.02274366	11.28	1	9.4	2.82	0	0	0	0	0	0	35	350	1050	0	0.00313595708	2.82;
	182	5.24999911	0.617883905	8.16	-2.14	1.01183846	21	1	17.5	5.25	0	0	0	0	0	0	3	30	90	0	0.00583821798	5.25;
	183	7.97999911	0.0174551622	12.4	-3.25	1.00991222	31.92	1	26.6	7.98	0	0	0	0	0	0	3	30	90	0	0.00887409132	7.98;
	189	170.749999	-40.3775263	209.45	-46.67	0.995064787	682.98	1	569.15	170.75	0	0	0	0	0	0	20	200	600	0	0.189875529	384.37;
	196	0	0	34.36	-7.49	0.993062422	81	0	67.5	20.25	0	0	0	0	0	0	35	350	1050	0	0	43.875;
	197	0	0	34.36	-7.49	0.993062422	81	0	67.5	20.25	0	0	0	0	0	0	35	350	1050	0	0	43.875;
];

%% branch data
%	fbus	tbus	r	x	b	rateA	rateB	rateC	ratio	angle	status	angmin	angmax	Pf	Qf	Pt	Qt
mpc.branch = [
	1	2	0.000673	0.003339	0	100	0	0	1	0	1	0	0	4.4446	1.2637	-4.4445	-1.2630;
	1	119	0.018542	0.119758	0.02285	221.1	0	0	1	0	1	0	0	17.5278	-5.5391	-17.4636	3.7885;
	1	124	0.005615	0.036268	0.00692	221.1	0	0	1	0	1	0	0	-32.5345	-0.8518	32.5974	0.6025;
	1	193	0.004258	0.027501	0.00525	221.1	0	0	1	0	1	0	0	10.5621	5.1272	-10.5558	-5.5815;
	3	4	0.000573	0.003303	0	100	0	0	1	0	1	0	0	1.0521	0.2971	-1.0521	-0.2971;
	3	57	0.008505	0.058098	0.00988	221.1	0	0	1	0	1	0	0	6.2866	4.9711	-6.2809	-5.9403;
	3	137	0.005889	0.038035	0.00726	221.1	0	0	1	0	1	0	0	-7.3387	-5.2682	7.3432	4.5516;
	5	6	0.000694	0.003337	0	100	0	0	1	0	1	0	0	4.6149	1.3127	-4.6148	-1.3119;
	5	48	0.006246	0.043513	0.00711	221.1	0	0	1	0	1	0	0	6.4620	-1.1315	-6.4593	0.4487;
	5	64	0.007877	0.054875	0.00897	221.1	0	0	1	0	1	0	0	-11.0769	-0.1811	11.0867	-0.6363;
	7	8	0.000634	0.003189	0	100	0	0	1	0	1	0	0	14.2792	4.0791	-14.2777	-4.0716;
	7	86	0.003756	0.024259	0.00463	221.1	0	0	1	0	1	0	0	-9.2914	-1.4086	9.2949	0.9970;
	7	101	0.003597	0.023232	0.00443	221.1	0	0	1	0	1	0	0	-12.5953	-3.9248	12.6019	3.5518;
	7	148	0.008667	0.05598	0.01068	221.1	0	0	1	0	1	0	0	7.6074	1.2543	-7.6018	-2.2172;
	9	10	0.000585	0.003967	0	100	0	0	1	0	1	0	0	25.6730	7.3433	-25.6686	-7.3133;
	9	124	0.008069	0.055123	0.00938	221.1	0	0	1	0	1	0	0	-27.6430	-4.3442	27.7099	3.9147;
	9	131	0.004139	0.026732	0.0051	221.1	0	0	1	0	1	0	0	-0.3082	-0.7659	0.3083	0.2863;
	9	141	0.004446	0.03097	0.00506	221.1	0	0	1	0	1	0	0	4.5009	-0.3937	-4.5000	-0.0753;
	9	193	0.003695	0.025244	0.00429	221.1	0	0	1	0	1	0	0	-2.2227	-1.8396	2.2230	1.4380;
	11	12	0.000534	0.003533	0	100	0	0	1	0	1	0	0	0.1857	0.0557	-0.1857	-0.0557;
	11	13	0.000619	0.003606	0	100	0	0	1	0	1	0	0	1.5595	0.4457	-1.5595	-0.4456;
	11	15	0.010408	0.06722	0.01282	221.1	0	0	1	0	1	0	0	-3.3664	3.4876	3.3693	-4.8134;
	11	93	0.018394	0.128141	0.02095	221.1	0	0	1	0	1	0	0	3.2069	-3.3446	-3.2042	1.1569;
	11	158	0.008519	0.058199	0.0099	221.1	0	0	1	0	1	0	0	-1.5856	-0.6443	1.5858	-0.3949;
	14	15	0.000637	0.027526	0	300	0	0	1	0	1	0	0	31.0844	-27.8068	-31.0736	28.2713;
	14	121	0.007013	0.050098	0.09134	402.36	0	0	1	0	1	0	0	-37.7822	30.3070	37.9627	-38.3013;
	14	149	0.009133	0.065244	0.11895	402.36	0	0	1	0	1	0	0	6.6979	-2.5002	-6.6927	-9.6910;
	15	16	0.000553	0.0032	0	100	0	0	1	0	1	0	0	27.7043	7.9220	-27.7000	-7.8966;
	17	18	0.000503	0.003926	0	100	0	0	1	0	1	0	0	0.4394	0.1238	-0.4394	-0.1238;
	17	19	0.000514	0.003079	0	100	0	0	1	0	1	0	0	0.4765	0.1362	-0.4765	-0.1361;
	17	20	0.000623	0.003339	0	100	0	0	1	0	1	0	0	0.6993	0.1981	-0.6993	-0.1980;
	17	21	0.00062	0.00394	0	100	0	0	1	0	1	0	0	2.8530	0.8111	-2.8529	-0.8107;
	17	109	0.009789	0.068198	0.01115	221.1	0	0	1	0	1	0	0	-16.2840	7.3386	16.3167	-8.1991;
	17	120	0.010316	0.070473	0.01199	221.1	0	0	1	0	1	0	0	11.8158	-8.6076	-11.7943	7.5741;
	22	23	0.000616	0.003222	0	100	0	0	1	0	1	0	0	0.8726	0.2476	-0.8726	-0.2475;
	22	24	0.000687	0.003067	0	100	0	0	1	0	1	0	0	1.4853	0.4209	-1.4853	-0.4208;
	22	27	0.011379	0.073494	0.01402	221.1	0	0	1	0	1	0	0	0.5116	-1.9479	-0.5115	0.4701;
	22	158	0.012701	0.086769	0.01476	221.1	0	0	1	0	1	0	0	-2.8695	1.2795	2.8710	-2.8230;
	25	26	0.00061	0.003071	0	100	0	0	1	0	1	0	0	0.7836	0.2264	-0.7836	-0.2264;
	25	64	0.007643	0.053244	0.0087	221.1	0	0	1	0	1	0	0	-17.8695	16.7831	17.9164	-17.3228;
	25	199	0.009909	0.064003	0.01221	221.1	0	0	1	0	1	0	0	17.0859	-17.0095	-17.0305	16.1309;
	27	28	0.000587	0.003964	0	100	0	0	1	0	1	0	0	1.4419	0.4147	-1.4419	-0.4146;
	27	93	0.025172	0.175362	0.02867	221.1	0	0	1	0	1	0	0	1.2286	-1.5990	-1.2283	-1.4250;
	27	158	0.020429	0.131945	0.02517	221.1	0	0	1	0	1	0	0	-2.1591	0.7142	2.1608	-3.3549;
	29	30	0.000694	0.003131	0	100	0	0	1	0	1	0	0	35.5480	10.1733	-35.5379	-10.1279;
	29	124	0.005561	0.038742	0.00633	221.1	0	0	1	0	1	0	0	-23.0794	-6.2107	23.1129	5.8454;
	29	140	0.007895	0.055004	0.00899	221.1	0	0	1	0	1	0	0	-12.4686	-3.9627	12.4827	3.2111;
	31	32	0.000667	0.003884	0	100	0	0	1	0	1	0	0	0.3529	0.1038	-0.3529	-0.1038;
	31	33	0.000528	0.003639	0	100	0	0	1	0	1	0	0	4.4566	1.2741	-4.4565	-1.2733;
	31	177	0.008406	0.05856	0.00957	221.1	0	0	1	0	1	0	0	-8.7576	-8.7880	8.7705	7.9603;
	31	192	0.008088	0.05525	0.0094	221.1	0	0	1	0	1	0	0	3.9481	7.4102	-3.9415	-8.2569;
	34	35	0.000575	0.003674	0	100	0	0	1	0	1	0	0	12.8484	3.6700	-12.8474	-3.6636;
	34	54	0.006268	0.042819	0.00729	221.1	0	0	1	0	1	0	0	-20.9151	-7.5831	20.9448	7.0286;
	34	137	0.006911	0.044639	0.00852	221.1	0	0	1	0	1	0	0	8.0667	3.9131	-8.0611	-4.7558;
	36	37	0.000552	0.003328	0	100	0	0	1	0	1	0	0	2.4705	0.7061	-2.4704	-0.7058;
	36	38	0.00067	0.003511	0	100	0	0	1	0	1	0	0	20.6316	5.8987	-20.6284	-5.8820;
	36	58	0.010889	0.07439	0.01266	221.1	0	0	1	0	1	0	0	2.0148	-11.4889	-2.0011	10.3462;
	36	83	0.009615	0.066986	0.01095	221.1	0	0	1	0	1	0	0	-25.1169	4.8842	25.1824	-5.4876;
	39	40	0.000505	0.003103	0	100	0	0	1	0	1	0	0	1.2625	0.3590	-1.2625	-0.3589;
	39	85	0.008702	0.060625	0.00991	221.1	0	0	1	0	1	0	0	-7.6681	6.9584	7.6780	-7.8787;
	39	159	0.007332	0.05108	0.00835	221.1	0	0	1	0	1	0	0	1.8199	-8.6232	-1.8147	7.8189;
	41	100	0.004595	0.029676	0.00566	221.1	0	0	1	0	1	0	0	-11.3281	-27.3281	11.3659	26.9768;
	41	163	0.003165	0.021623	0.00368	221.1	0	0	1	0	1	0	0	-1.5490	13.3738	1.5546	-13.7182;
	41	180	0.009408	0.060766	0.01159	221.1	0	0	1	0	1	0	0	-10.1841	7.3800	10.1992	-8.4877;
	42	44	0.012256	0.085383	0.01396	221.1	0	0	1	0	1	0	0	-10.2666	7.9521	10.2885	-9.2001;
	42	181	0.008008	0.05579	0.00912	221.1	0	0	1	0	1	0	0	3.6943	-9.8272	-3.6863	8.9582;
	43	84	0.007509	0.051295	0.00873	221.1	0	0	1	0	1	0	0	5.4802	-3.8497	-5.4769	3.0468;
	43	132	0.011052	0.075503	0.01285	221.1	0	0	1	0	1	0	0	-6.7372	3.4949	6.7445	-4.6557;
	44	200	0.014813	0.101195	0.01722	221.1	0	0	1	0	1	0	0	-12.8567	8.4698	12.8942	-9.9182;
	45	46	0.000936	0.049195	0	160	0	0	1	0	1	0	0	17.7459	-3.2914	-17.7428	3.4548;
	45	55	0.002593	0.018527	0.03378	402.36	0	0	1	0	1	0	0	5.8450	13.6178	-5.8379	-16.8710;
	45	102	0.0029	0.020715	0.03777	402.36	0	0	1	0	1	0	0	-10.9705	19.5505	10.9876	-23.1180;
	45	187	0.003474	0.024821	0.04525	402.36	0	0	1	0	1	0	0	-12.6203	-29.8769	12.6531	25.6387;
	46	61	0.006971	0.048561	0.00794	221.1	0	0	1	0	1	0	0	3.4126	6.7347	-3.4082	-7.4823;
	46	122	0.010129	0.065419	0.01248	221.1	0	0	1	0	1	0	0	9.9429	-11.4420	-9.9206	10.3501;
	47	54	0.006678	0.045623	0.00776	221.1	0	0	1	0	1	0	0	7.1002	2.0298	-7.0966	-2.8158;
	47	66	0.007339	0.047401	0.00904	221.1	0	0	1	0	1	0	0	-8.0533	-2.3021	8.0580	1.3859;
	48	49	0.027149	0.532021	0	28.9	0	0	1	0	1	0	0	-1.3594	-0.6285	1.3600	0.6406;
	48	50	0.021719	0.404167	0	28.7	0	0	1	0	1	0	0	-1.3595	-0.6311	1.3600	0.6403;
	48	51	0.027149	0.612711	0	24.3	0	0	1	0	1	0	0	-1.3594	-0.6257	1.3600	0.6396;
	48	52	0.021719	0.379817	0	24.3	0	0	1	0	1	0	0	-1.3595	-0.6305	1.3600	0.6392;
	48	53	0.02121	0.576549	0	35.3	0	0	1	0	1	0	0	-2.7182	-0.9606	2.7200	1.0092;
	48	74	0.007959	0.054369	0.00925	221.1	0	0	1	0	1	0	0	13.5588	2.7258	-13.5432	-3.5289;
	54	66	0.007051	0.045544	0.00869	221.1	0	0	1	0	1	0	0	-15.4943	-4.6831	15.5117	3.8868;
	55	56	0.005152	0.124653	0	160	0	0	1	0	1	0	0	2.7597	0.0124	-2.7593	-0.0027;
	55	81	0.005467	0.039054	0.0712	402.36	0	0	1	0	1	0	0	40.5131	-31.1641	-40.3781	25.1240;
	55	102	0.001246	0.008902	0.01623	402.36	0	0	1	0	1	0	0	-37.5677	17.1952	37.5899	-18.6174;
	55	112	0.004166	0.029763	0.05426	402.36	0	0	1	0	1	0	0	0.2367	14.4295	-0.2243	-19.6033;
	55	128	0.003415	0.024395	0.04448	402.36	0	0	1	0	1	0	0	-0.1040	16.3980	0.1160	-20.6285;
	56	103	0.004282	0.02983	0.00488	221.1	0	0	1	0	1	0	0	1.8528	-0.2533	-1.8527	-0.2212;
	57	159	0.00752	0.051369	0.00874	221.1	0	0	1	0	1	0	0	4.5357	5.4452	-4.5316	-6.3033;
	58	95	0.009836	0.063526	0.01212	221.1	0	0	1	0	1	0	0	4.6108	-21.8516	-4.5635	20.9473;
	58	177	0.014049	0.095972	0.01633	221.1	0	0	1	0	1	0	0	-5.5368	10.6680	5.5600	-12.1013;
	59	119	0.011209	0.072397	0.01381	221.1	0	0	1	0	1	0	0	-6.8986	5.5438	6.9087	-6.7956;
	59	139	0.009665	0.062426	0.01191	221.1	0	0	1	0	1	0	0	4.0539	-6.3557	-4.0489	5.2443;
	60	97	0.012274	0.079279	0.01512	221.1	0	0	1	0	1	0	0	23.2183	-9.1904	-23.1405	8.2288;
	60	134	0.009007	0.062749	0.01026	221.1	0	0	1	0	1	0	0	-25.5037	8.5409	25.5721	-9.0502;
	61	103	0.006539	0.045556	0.00745	221.1	0	0	1	0	1	0	0	-10.8123	3.4272	10.8211	-4.0927;
	62	159	0.008634	0.058979	0.01003	221.1	0	0	1	0	1	0	0	-5.4834	0.7679	5.4861	-1.7631;
	62	160	0.007628	0.053144	0.00869	221.1	0	0	1	0	1	0	0	-7.7663	-4.5429	7.7721	3.7025;
	63	66	0.011949	0.083244	0.01361	221.1	0	0	1	0	1	0	0	-15.8904	3.1891	15.9209	-4.4067;
	63	184	0.017963	0.116023	0.02214	221.1	0	0	1	0	1	0	0	10.9520	-4.5939	-10.9295	2.4063;
	64	65	0.00128	0.10157	0	195.5	0	0	1	0	1	0	0	-29.0031	17.9591	29.0182	-16.7630;
	66	67	0.020951	0.144786	0	30	0	0	1	0	1	0	0	-1.4095	-0.5244	1.4100	0.5275;
	66	68	0.00689	0.264997	0	73	0	0	1	0	1	0	0	-8.3753	0.9965	8.3800	-0.8168;
	66	69	0.00441	0.09499	0	70.5	0	0	1	0	1	0	0	-8.3770	0.8237	8.3800	-0.7596;
	66	70	0.00689	0.199449	0	70.5	0	0	1	0	1	0	0	-8.3753	0.9307	8.3800	-0.7957;
	66	71	0.003528	0.081544	0	68	0	0	1	0	1	0	0	-8.3776	0.8094	8.3800	-0.7544;
	66	72	0.003528	0.074599	0	68	0	0	1	0	1	0	0	-8.3776	0.8022	8.3800	-0.7519;
	66	73	0.00689	0.146423	0	65	0	0	1	0	1	0	0	-8.3753	0.8761	8.3800	-0.7771;
	66	158	0.004993	0.032251	0.00615	221.1	0	0	1	0	1	0	0	12.1772	-5.5803	-12.1688	4.9885;
	74	190	0.008894	0.06076	0.01034	221.1	0	0	1	0	1	0	0	2.6534	0.4234	-2.6527	-1.4320;
	75	76	0.038464	0.784328	0	24.3	0	0	1	0	1	0	0	-1.1992	-0.8042	1.2000	0.8213;
	75	77	0.08013	2.192105	0	7.4	0	0	1	0	1	0	0	-0.7194	-0.4647	0.7200	0.4815;
	75	78	0.008544	0.181406	0	65	0	0	1	0	1	0	0	-0.0000	-0.0000	0.0000	-0.0000;
	75	79	0.01068	0.277774	0	62.1	0	0	1	0	1	0	0	0.0000	0.0000	0.0000	0.0000;
	75	108	0.010988	0.070969	0.01354	221.1	0	0	1	0	1	0	0	8.7993	-0.4720	-8.7904	-0.7632;
	75	157	0.013487	0.087112	0.01662	221.1	0	0	1	0	1	0	0	-9.0459	1.1214	9.0579	-2.6313;
	80	100	0.021463	0.149525	0.02444	221.1	0	0	1	0	1	0	0	2.4715	-8.6859	-2.4589	6.2069;
	80	143	0.020594	0.14347	0.02345	221.1	0	0	1	0	1	0	0	-3.3617	8.4332	3.3824	-10.6964;
	81	82	0.00097	0.042371	0	250	0	0	1	0	1	0	0	17.4316	4.2053	-17.4284	-4.0681;
	81	178	0.006598	0.047137	0.08594	402.36	0	0	1	0	1	0	0	22.9465	-29.3294	-22.8697	21.2577;
	82	195	0.003845	0.026265	0.00447	221.1	0	0	1	0	1	0	0	13.0168	2.8085	-13.0099	-3.2024;
	83	146	0.005382	0.036767	0.00626	221.1	0	0	1	0	1	0	0	-11.1441	2.7919	11.1515	-3.3459;
	83	186	0.00792	0.055174	0.00902	221.1	0	0	1	0	1	0	0	-16.2112	2.0798	16.2332	-2.7982;
	84	113	0.006652	0.04544	0.00773	221.1	0	0	1	0	1	0	0	3.2216	-3.6904	-3.2201	2.9675;
	85	120	0.007786	0.050291	0.00959	221.1	0	0	1	0	1	0	0	-10.6671	7.0247	10.6804	-7.8897;
	86	101	0.00512	0.033072	0.00631	221.1	0	0	1	0	1	0	0	-2.0296	-2.0393	2.0300	1.4491;
	86	142	0.003387	0.023141	0.00394	221.1	0	0	1	0	1	0	0	-4.9192	2.0650	4.9203	-2.4275;
	86	193	0.006606	0.042664	0.00814	221.1	0	0	1	0	1	0	0	-7.3078	-2.4360	7.3118	1.6971;
	87	88	0.000832	0.034189	0	350	0	0	1	0	1	0	0	38.9905	-2.5739	-38.9781	3.0834;
	87	149	0.001621	0.011579	0.02111	402.36	0	0	1	0	1	0	0	-38.9905	2.5739	39.0148	-4.5639;
	88	150	0.00557	0.035973	0.00686	221.1	0	0	1	0	1	0	0	-15.2358	-2.1426	15.2486	1.5203;
	88	176	0.003859	0.024922	0.00475	221.1	0	0	1	0	1	0	0	17.3716	3.1654	-17.3598	-3.5759;
	88	194	0.004258	0.029088	0.00495	221.1	0	0	1	0	1	0	0	7.3759	-12.5030	-7.3675	12.0516;
	89	90	0.0601	2.279922	0	8.6	0	0	1	0	1	0	0	-0.9593	-0.4994	0.9600	0.5260;
	89	91	0.024614	0.503424	0	32	0	0	1	0	1	0	0	-1.4993	-0.8083	1.5000	0.8229;
	89	92	0.019539	0.36204	0	35.3	0	0	1	0	1	0	0	0.0000	0.0000	0.0000	0.0000;
	89	95	0.008734	0.056409	0.01076	221.1	0	0	1	0	1	0	0	-2.4795	-9.8243	2.4876	8.7944;
	89	188	0.00805	0.051996	0.00992	221.1	0	0	1	0	1	0	0	-38.5539	-1.2618	38.6736	1.0392;
	93	94	0.01068	0.280602	0	62.1	0	0	1	0	1	0	0	-5.3971	-0.0789	5.4000	0.1563;
	93	191	0.022088	0.142662	0.02722	221.1	0	0	1	0	1	0	0	7.9358	-0.1914	-7.9223	-2.5849;
	96	122	0.01062	0.073986	0.01209	221.1	0	0	1	0	1	0	0	-16.8335	8.3091	16.8718	-9.2522;
	96	143	0.015858	0.102423	0.01954	221.1	0	0	1	0	1	0	0	19.5577	-7.6449	-19.4903	6.1070;
	96	188	0.010903	0.070421	0.01343	221.1	0	0	1	0	1	0	0	-4.7725	-1.2454	4.7750	-0.0902;
	97	200	0.01318	0.085125	0.01624	221.1	0	0	1	0	1	0	0	18.7321	-9.4857	-18.6743	8.2721;
	98	99	0.000643	0.030516	0	250	0	0	1	0	1	0	0	34.7184	6.0588	-34.7100	-5.6598;
	98	123	0.0047	0.033574	0.06121	402.36	0	0	1	0	1	0	0	-34.7184	-6.0588	34.7786	0.6558;
	99	142	0.007605	0.052982	0.00866	221.1	0	0	1	0	1	0	0	27.3908	3.5729	-27.3292	-3.9596;
	100	174	0.010698	0.074531	0.01218	221.1	0	0	1	0	1	0	0	-9.3976	14.4316	9.4294	-15.4896;
	100	179	0.007093	0.049413	0.00808	221.1	0	0	1	0	1	0	0	-17.5035	28.1099	17.5784	-28.4347;
	100	184	0.012745	0.08879	0.01451	221.1	0	0	1	0	1	0	0	-4.4956	2.7324	4.4995	-4.2408;
	101	110	0.00196	0.012657	0.00241	221.1	0	0	1	0	1	0	0	-2.8518	0.0062	2.8519	-0.2316;
	101	117	0.005245	0.035833	0.0061	221.1	0	0	1	0	1	0	0	-9.6649	-5.1083	9.6714	4.5781;
	101	141	0.003144	0.020305	0.00387	221.1	0	0	1	0	1	0	0	-2.4280	0.0110	2.4282	-0.3735;
	102	103	0.001709	0.054578	0	250	0	0	1	0	1	0	0	13.7801	-2.0255	-13.7767	2.1344;
	102	104	0.0021	0.087749	0	130	0	0	1	0	1	0	0	-26.1588	7.8092	26.1749	-7.1370;
	102	105	0.00097	0.059419	0	260	0	0	1	0	1	0	0	-53.3262	22.4387	53.3595	-20.3942;
	102	128	0.0027	0.019292	0.03517	402.36	0	0	1	0	1	0	0	17.1274	13.5130	-17.1128	-16.8181;
	103	106	0.007749	0.053987	0.00883	221.1	0	0	1	0	1	0	0	4.8082	2.1796	-4.8059	-3.0220;
	106	130	0.006991	0.047761	0.00813	221.1	0	0	1	0	1	0	0	3.3803	2.6137	-3.3789	-3.3917;
	107	113	0.006748	0.046101	0.00784	221.1	0	0	1	0	1	0	0	-21.2883	-4.4007	21.3219	3.8883;
	107	129	0.005168	0.035307	0.00601	221.1	0	0	1	0	1	0	0	-17.6810	-3.7403	17.6988	3.2938;
	107	192	0.003939	0.025441	0.00485	221.1	0	0	1	0	1	0	0	2.5980	-2.2251	-2.5975	1.7704;
	108	198	0.024792	0.160126	0.03055	221.1	0	0	1	0	1	0	0	3.1250	-0.8486	-3.1224	-2.0425;
	109	186	0.008774	0.059942	0.0102	221.1	0	0	1	0	1	0	0	-19.5100	7.2894	19.5498	-8.0063;
	110	193	0.003444	0.022243	0.00424	221.1	0	0	1	0	1	0	0	-9.3834	-1.6268	9.3867	1.2492;
	111	163	0.005281	0.034111	0.00651	221.1	0	0	1	0	1	0	0	-5.4617	-1.1828	5.4632	0.5175;
	111	175	0.00795	0.055386	0.00905	221.1	0	0	1	0	1	0	0	0.1565	-0.3269	-0.1565	-0.6113;
	112	113	0.002077	0.058615	0	350	0	0	1	0	1	0	0	48.1639	11.9715	-48.1108	-10.4752;
	112	114	0.06	0.434013	0	20	0	0	1	0	1	0	0	-0.6959	-0.0542	0.6962	0.0564;
	112	115	0.00128	0.062771	0	200	0	0	1	0	1	0	0	-46.2171	14.4409	46.2482	-12.9156;
	112	128	0.001295	0.009255	0.01687	402.36	0	0	1	0	1	0	0	-1.0265	-6.7549	1.0270	5.1298;
	113	192	0.005418	0.034995	0.00668	221.1	0	0	1	0	1	0	0	30.0090	3.6193	-29.9568	-3.9142;
	116	117	0.000517	0.034943	0	300	0	0	1	0	1	0	0	59.2100	5.1201	-59.1907	-3.8185;
	116	133	0.00389	0.027793	0.05067	402.36	0	0	1	0	1	0	0	-59.2100	-5.1201	59.3541	1.3292;
	117	132	0.011912	0.082984	0.01357	221.1	0	0	1	0	1	0	0	23.0257	-0.8493	-22.9588	0.0368;
	117	162	0.01617	0.104442	0.01993	221.1	0	0	1	0	1	0	0	5.9973	-5.7500	-5.9872	3.9249;
	118	131	0.00718	0.046377	0.00885	221.1	0	0	1	0	1	0	0	18.5293	4.8162	-18.5012	-5.4706;
	118	134	0.011598	0.0808	0.01321	221.1	0	0	1	0	1	0	0	-21.0064	-3.3223	21.0613	2.4458;
	118	198	0.009487	0.064809	0.01103	221.1	0	0	1	0	1	0	0	0.1075	-2.1674	-0.1072	1.1224;
	121	122	0.000786	0.063023	0	200	0	0	1	0	1	0	0	17.6382	4.3503	-17.6356	-4.1427;
	121	178	0.008903	0.063604	0.11596	402.36	0	0	1	0	1	0	0	38.0568	-19.7468	-37.9108	9.1050;
	121	187	0.001063	0.007593	0.01384	402.36	0	0	1	0	1	0	0	-93.6577	53.6978	93.7822	-54.1910;
	123	124	0.000329	0.017481	0	400	0	0	1	0	1	0	0	115.5880	16.9139	-115.5410	-14.4175;
	123	125	0.00448	0.104562	0	170	0	0	1	0	1	0	0	-38.9451	-9.0482	39.0200	10.7973;
	123	126	0.00148	0.066043	0	170	0	0	1	0	1	0	0	-38.9950	-9.5523	39.0200	10.6663;
	123	127	0.001	0.031691	0	170	0	0	1	0	1	0	0	-39.0031	-9.6463	39.0200	10.1817;
	123	133	0.001459	0.010423	0.019	402.36	0	0	1	0	1	0	0	-30.4139	8.2250	30.4293	-9.9297;
	123	156	0.001117	0.007981	0.01455	402.36	0	0	1	0	1	0	0	-3.0094	2.4520	3.0096	-3.8406;
	124	193	0.006577	0.04582	0.00749	221.1	0	0	1	0	1	0	0	32.1208	4.0548	-32.0480	-4.2556;
	128	129	0.000753	0.044453	0	250	0	0	1	0	1	0	0	71.1915	21.0611	-71.1486	-18.5246;
	128	133	0.009554	0.068257	0.12444	402.36	0	0	1	0	1	0	0	-55.2217	11.2558	55.5528	-20.8403;
	130	144	0.022678	0.157988	0.02583	221.1	0	0	1	0	1	0	0	0.3341	2.5267	-0.3307	-4.9871;
	133	134	0.0002	0.013328	0	400	0	0	1	0	1	0	0	101.3812	-12.1548	-101.3594	13.6104;
	133	135	0.00043	0.033512	0	580	0	0	1	0	1	0	0	-133.8367	24.1894	133.9200	-17.6958;
	133	136	0.00043	0.027478	0	580	0	0	1	0	1	0	0	-133.8368	23.5594	133.9200	-18.2437;
	133	156	0.001958	0.013985	0.0255	402.36	0	0	1	0	1	0	0	20.9560	-6.1532	-20.9465	3.7861;
	134	140	0.010445	0.071357	0.01214	221.1	0	0	1	0	1	0	0	17.4556	3.7024	-17.4203	-4.6184;
	134	186	0.014463	0.093412	0.01782	221.1	0	0	1	0	1	0	0	37.2705	-10.7084	-37.0460	10.4436;
	138	139	0.026477	0.184455	0.03015	221.1	0	0	1	0	1	0	0	0.0716	3.5308	-0.0648	-6.4171;
	138	195	0.008728	0.05637	0.01075	221.1	0	0	1	0	1	0	0	-1.2848	-3.8791	1.2860	2.8285;
	141	148	0.01019	0.065817	0.01256	221.1	0	0	1	0	1	0	0	11.6713	2.1976	-11.6557	-3.2737;
	141	193	0.002896	0.018702	0.00357	221.1	0	0	1	0	1	0	0	-10.4535	-1.9953	10.4570	1.6819;
	144	162	0.006962	0.048504	0.00793	221.1	0	0	1	0	1	0	0	-5.1121	3.4355	5.1151	-4.1714;
	145	176	0.008799	0.060111	0.01023	221.1	0	0	1	0	1	0	0	-6.0037	-1.3627	6.0069	0.3390;
	145	185	0.010839	0.075509	0.01234	221.1	0	0	1	0	1	0	0	-4.4713	-1.6234	4.4736	0.3777;
	146	147	0.0025	0.10181	0	130.6	0	0	1	0	1	0	0	-33.3516	6.0777	33.3814	-4.8661;
	146	177	0.011064	0.07708	0.0126	221.1	0	0	1	0	1	0	0	22.2001	-2.7318	-22.1431	1.9128;
	149	150	0.000412	0.020251	0	400	0	0	1	0	1	0	0	61.9044	-10.4089	-61.8886	11.1874;
	149	151	0.02267	0.625521	0	20	0	0	1	0	1	0	0	-1.6193	-0.5979	1.6200	0.6161;
	149	152	0.00249	0.141687	0	100	0	0	1	0	1	0	0	-23.1560	6.3731	23.1700	-5.5758;
	149	153	0.00549	0.184603	0	100	0	0	1	0	1	0	0	-23.1390	6.6350	23.1700	-5.5915;
	149	154	0.00249	0.10294	0	100	0	0	1	0	1	0	0	-23.1561	6.1364	23.1700	-5.5600;
	149	155	0.00249	0.099835	0	100	0	0	1	0	1	0	0	-23.1561	6.1173	23.1700	-5.5586;
	150	185	0.013458	0.091934	0.01564	221.1	0	0	1	0	1	0	0	10.9334	0.7153	-10.9175	-2.2112;
	150	194	0.003138	0.021435	0.00365	221.1	0	0	1	0	1	0	0	35.7066	-13.4230	-35.6624	13.3489;
	156	157	0.000592	0.045654	0	300	0	0	1	0	1	0	0	17.9369	0.0544	-17.9349	0.0993;
	160	161	0.00139	0.080288	0	180.2	0	0	1	0	1	0	0	0.0000	0.0000	0.0000	0.0000;
	160	181	0.004296	0.029345	0.00499	221.1	0	0	1	0	1	0	0	-7.7721	-3.7025	7.7751	3.2155;
	163	164	0.008207	0.11301	0	58.1	0	0	1	0	1	0	0	0.0000	0.0000	0.0000	0.0000;
	163	165	0.0074	0.301657	0	65	0	0	1	0	1	0	0	0.0000	0.0000	0.0000	0.0000;
	163	166	0.016368	0.382075	0	42	0	0	1	0	1	0	0	0.0000	0.0000	0.0000	0.0000;
	163	167	0.010476	0.196499	0	42	0	0	1	0	1	0	0	-2.8191	-0.9797	2.8200	0.9966;
	163	168	0.018	0.490983	0	40	0	0	1	0	1	0	0	0.0000	0.0000	0.0000	-0.0000;
	163	169	0.016368	0.396417	0	40	0	0	1	0	1	0	0	-0.0000	0.0000	0.0000	0.0000;
	163	170	0.016368	0.374902	0	35.6	0	0	1	0	1	0	0	-2.8186	-0.9354	2.8200	0.9673;
	163	179	0.00579	0.039557	0.00673	221.1	0	0	1	0	1	0	0	-28.9284	7.2663	28.9784	-7.6229;
	171	190	0.009866	0.0674	0.01147	221.1	0	0	1	0	1	0	0	7.0986	0.2529	-7.0935	-1.3427;
	171	195	0.011644	0.081116	0.01326	221.1	0	0	1	0	1	0	0	-11.7076	-1.5648	11.7239	0.3739;
	172	180	0.015296	0.106558	0.01742	221.1	0	0	1	0	1	0	0	1.1434	-3.2708	-1.1423	1.4774;
	172	199	0.024005	0.155042	0.02958	221.1	0	0	1	0	1	0	0	-4.3794	2.3505	4.3873	-5.3351;
	173	174	0.015373	0.099293	0.01894	221.1	0	0	1	0	1	0	0	-9.4808	-1.0461	9.4942	-0.8358;
	173	175	0.008572	0.055363	0.01056	221.1	0	0	1	0	1	0	0	4.2419	-0.4456	-4.2404	-0.6398;
	174	188	0.017952	0.12264	0.02087	221.1	0	0	1	0	1	0	0	-20.5897	15.8503	20.7123	-17.1497;
	178	179	0.000495	0.036157	0	250	0	0	1	0	1	0	0	60.7805	-30.3627	-60.7580	32.0096;
	180	191	0.026393	0.183866	0.03006	221.1	0	0	1	0	1	0	0	-3.5682	-4.4415	3.5735	1.3459;
	180	199	0.012185	0.078698	0.01501	221.1	0	0	1	0	1	0	0	-10.1443	10.1225	10.1703	-11.4982;
	181	182	0.01099	0.297746	0	60.3	0	0	1	0	1	0	0	-5.2470	-0.5366	5.2500	0.6179;
	181	183	0.004627	0.114254	0	65	0	0	1	0	1	0	0	-7.9771	0.0539	7.9800	0.0175;
	181	194	0.004395	0.028384	0.00542	221.1	0	0	1	0	1	0	0	-20.5574	-20.1507	20.5927	19.8224;
	187	188	0.001394	0.044762	0	400	0	0	1	0	1	0	0	64.2215	-14.2551	-64.1609	16.2007;
	187	189	0.0003	0.007815	0	740	0	0	1	0	1	0	0	-170.6567	42.8074	170.7500	-40.3775;
	195	196	0.00285	0.060038	0	87.7	0	0	1	0	1	0	0	0.0000	-0.0000	-0.0000	0.0000;
	195	197	0.00285	0.191484	0	87.7	0	0	1	0	1	0	0	-0.0000	0.0000	-0.0000	0.0000;
];

%% generator cost data
%	2	startup	shutdown	n	c(n-1)	...	c0
%	Using quadratic cost curves only
mpc.gencost = [
	2	0	0	3	0.002	19	236.12;
	2	0	0	3	0.002	19	236.12;
	2	0	0	3	0.002	19	236.12;
	2	0	0	3	0.002	19	236.12;
	2	0	0	3	0.002	19	236.24;
	2	0	0	3	0	0	0;
	2	0	0	3	0.002	19	236.13;
	2	0	0	3	0.002	19	236.74;
	2	0	0	3	0.002	19	236.74;
	2	0	0	3	0.002	19	236.74;
	2	0	0	3	0.002	19	236.74;
	2	0	0	3	0.002	19	236.74;
	2	0	0	3	0.002	19	236.74;
	2	0	0	3	0.002	23.157	606;
	2	0	0	3	0.002	23.146	603.6;
	2	0	0	3	0.002	23.252	627;
	2	0	0	3	0.002	23.252	627;
	2	0	0	3	0.002	23.152	604.8;
	2	0	0	3	0.002	23.164	607.5;
	2	0	0	3	0.002	23.173	609.45;
	2	0	0	3	0.002	19	236.48;
	2	0	0	3	0	0	0;
	2	0	0	3	0	0	0;
	2	0	0	3	0	0	0;
	2	0	0	3	0	0	0;
	2	0	0	3	0.002	19	610.14;
	2	0	0	3	0.002	19	610.14;
	2	0	0	3	0.002	19	610.14;
	2	0	0	3	0.002	19	1261.33;
	2	0	0	3	0.002	19	1261.33;
	2	0	0	3	0	0	0;
	2	0	0	3	0.002	19	236.14;
	2	0	0	3	0.002	19	253.01;
	2	0	0	3	0.002	19	253.01;
	2	0	0	3	0.002	19	253.01;
	2	0	0	3	0.002	19	253.01;
	2	0	0	3	0.002	24.07	807.9;
	2	0	0	3	0.002	23.211	618;
	2	0	0	3	0.002	23.306	639;
	2	0	0	3	0.002	23.194	614.1;
	2	0	0	3	0.002	23.194	614.1;
	2	0	0	3	0.002	23.194	614.1;
	2	0	0	3	0.002	23.194	614.1;
	2	0	0	3	0.002	23.194	614.1;
	2	0	0	3	0.002	19	236.47;
	2	0	0	3	0.002	19	236.71;
	2	0	0	3	0	6.71	1272.13;
	2	0	0	3	0.002	23.588	701.25;
	2	0	0	3	0.002	23.588	701.25;
];

%% generator fuel type
mpc.genfuel = {
	"coal";
	"coal";
	"coal";
	"coal";
	"coal";
	"wind";
	"coal";
	"coal";
	"coal";
	"coal";
	"coal";
	"coal";
	"coal";
	"ng";
	"ng";
	"ng";
	"ng";
	"ng";
	"ng";
	"ng";
	"coal";
	"wind";
	"wind";
	"wind";
	"wind";
	"coal";
	"coal";
	"coal";
	"coal";
	"coal";
	"wind";
	"coal";
	"coal";
	"coal";
	"coal";
	"coal";
	"ng";
	"ng";
	"ng";
	"ng";
	"ng";
	"ng";
	"ng";
	"ng";
	"coal";
	"coal";
	"nuclear";
	"ng";
	"ng";

};

%% summary data
mpc.summary_stats = [
%	Nbus	Ngen	NgenON	Nline	NlineON	Nload	GenPCap	GenTotalP	GenTotalQ	GenPCapON	LoadTotP	LoadTotalQ	LoadShedP	LoadShedQ
	200	49	38	245	245	108	3379.59	927.328507	-123.512915	2997.49	922.142287	262.797766	0	0
];

%% solve time
mpc.solve_time = 0;
